####################################################################### 
# 
# This file contains crystal structure data downloaded from the 
# Cambridge Structural Database (CSD) hosted by the Cambridge 
# Crystallographic Data Centre (CCDC).
# 
# Full information about CCDC data access policies and citation 
# guidelines are available at http://www.ccdc.cam.ac.uk/access/V1 
# 
# Audit and citation data items may have been added by the CCDC. 
# Please retain this information to preserve the provenance of 
# this file and to allow appropriate attribution of the data. 
# 
#######################################################################

data_3D\Atomistic\(3)
_audit_block_doi                 10.5517/cc11z6w3
_database_code_depnum_ccdc_archive 'CCDC 982355'
loop_
_citation_id
_citation_doi
_citation_year
1 10.1002/chem.201403123 2014
_audit_update_record             
;
2014-01-20 deposited with the CCDC.	2024-07-11 downloaded from the CCDC.
;
_audit_creation_date             2014-01-08
_audit_creation_method           'Materials Studio'
_symmetry_space_group_name_H-M   R-3M
_symmetry_Int_Tables_number      166
_symmetry_cell_setting           trigonal
loop_
_symmetry_equiv_pos_as_xyz
x,y,z
-y,x-y,z
-x+y,-x,z
y,x,-z
x-y,-y,-z
-x,-x+y,-z
-x,-y,-z
y,-x+y,-z
x-y,x,-z
-y,-x,z
-x+y,y,z
x,x-y,z
x+2/3,y+1/3,z+1/3
-y+2/3,x-y+1/3,z+1/3
-x+y+2/3,-x+1/3,z+1/3
y+2/3,x+1/3,-z+1/3
x-y+2/3,-y+1/3,-z+1/3
-x+2/3,-x+y+1/3,-z+1/3
-x+2/3,-y+1/3,-z+1/3
y+2/3,-x+y+1/3,-z+1/3
x-y+2/3,x+1/3,-z+1/3
-y+2/3,-x+1/3,z+1/3
-x+y+2/3,y+1/3,z+1/3
x+2/3,x-y+1/3,z+1/3
x+1/3,y+2/3,z+2/3
-y+1/3,x-y+2/3,z+2/3
-x+y+1/3,-x+2/3,z+2/3
y+1/3,x+2/3,-z+2/3
x-y+1/3,-y+2/3,-z+2/3
-x+1/3,-x+y+2/3,-z+2/3
-x+1/3,-y+2/3,-z+2/3
y+1/3,-x+y+2/3,-z+2/3
x-y+1/3,x+2/3,-z+2/3
-y+1/3,-x+2/3,z+2/3
-x+y+1/3,y+2/3,z+2/3
x+1/3,x-y+2/3,z+2/3
_cell_length_a                   24.4992
_cell_length_b                   24.4992
_cell_length_c                   8.3379
_cell_angle_alpha                90.0000
_cell_angle_beta                 90.0000
_cell_angle_gamma                120.0000
loop_
_atom_site_label
_atom_site_type_symbol
_atom_site_fract_x
_atom_site_fract_y
_atom_site_fract_z
_atom_site_U_iso_or_equiv
_atom_site_adp_type
_atom_site_occupancy
N1 N 0.92629 0.27787 0.54022 0.04665 Uiso 1.00
C1 C 0.87607 0.22162 0.58427 0.04665 Uiso 1.00
H1B H 0.85480 0.33571 0.43456 0.04665 Uiso 0.50
Mn1 Mn 0.94888 0.33333 0.33333 0.04665 Uiso 1.00
O1 O 0.86776 0.33333 0.33333 0.04665 Uiso 1.00
Cl1 Cl 1.00000 0.42296 0.50000 0.04665 Uiso 1.00
N2 N 0.96471 0.29805 0.66667 0.04665 Uiso 1.00
C2 C 0.82062 0.17938 0.50045 0.04665 Uiso 1.00
H2A H 0.81086 0.18914 0.38127 0.04665 Uiso 1.00
loop_
_geom_bond_atom_site_label_1
_geom_bond_atom_site_label_2
_geom_bond_distance
_geom_bond_site_symmetry_2
_ccdc_geom_bond_type
N1 N2 1.333 . A
N1 C1 1.361 . A
N1 Mn1 2.092 . S
C1 C2 1.414 . A
C1 C1 1.469 16_546 S
H1B O1 0.914 . S
Mn1 N1 2.092 29 S
Mn1 O1 1.988 . S
Mn1 Cl1 2.360 . S
Mn1 Cl1 2.360 26_644 S
Mn1 N2 2.117 6_766 S
O1 H1B 0.914 29 S
Cl1 Mn1 2.360 6_766 S
N2 N1 1.333 16_546 A
N2 Mn1 2.117 6_766 S
C2 C1 1.414 10_665 A
C2 H2A 1.077 . S
